Circuit: Level 1 - ideal source capacitor branch current

Transient Analysis
No. of Data Rows : 6

--------------------------------------------------------------------------------
Index   time                v(out)              v1#branch
--------------------------------------------------------------------------------
       0    0.0000000000e+00    0.0000000000e+00    0.0000000000e+00
       1    2.0000000000e-05    2.0000000000e+00   -1.0000200000e-01
       2    4.0000000000e-05    2.0000000000e+00   -2.0000000000e-06
       3    6.0000000000e-05    2.0000000000e+00   -2.0000000000e-06
       4    8.0000000000e-05    2.0000000000e+00   -2.0000000000e-06
       5    1.0000000000e-04    2.0000000000e+00   -2.0000000000e-06
