Circuit: Level 2 - RC initialized from operating point

Transient Analysis
No. of Data Rows : 6

----------------------------------------------------------------------------------------
Index   time                v(in)               v(out)              v1#branch
----------------------------------------------------------------------------------------
       0    0.0000000000e+00    3.0000000000e+00    3.0000000000e+00    0.0000000000e+00
       1    1.0000000000e-04    3.0000000000e+00    3.0000000000e+00    0.0000000000e+00
       2    2.0000000000e-04    3.0000000000e+00    3.0000000000e+00    0.0000000000e+00
       3    3.0000000000e-04    3.0000000000e+00    3.0000000000e+00    0.0000000000e+00
       4    4.0000000000e-04    3.0000000000e+00    3.0000000000e+00    0.0000000000e+00
       5    5.0000000000e-04    3.0000000000e+00    3.0000000000e+00    2.2204460493e-19
