Circuit: Level 2 - RC with smaller maximum step

Transient Analysis
No. of Data Rows : 6

----------------------------------------------------------------------------------------
Index   time                v(in)               v(out)              v1#branch
----------------------------------------------------------------------------------------
       0    0.0000000000e+00    0.0000000000e+00    0.0000000000e+00    0.0000000000e+00
       1    2.0000000000e-04    5.0000000000e+00    8.8648762604e-01   -4.1135123740e-03
       2    4.0000000000e-04    5.0000000000e+00    1.6158031899e+00   -3.3841968101e-03
       3    6.0000000000e-04    5.0000000000e+00    2.2158129091e+00   -2.7841870909e-03
       4    8.0000000000e-04    5.0000000000e+00    2.7094423900e+00   -2.2905576100e-03
       5    1.0000000000e-03    5.0000000000e+00    3.1155525856e+00   -1.8844474144e-03
