Warning: can't parse 'vdd': ignored
Warning: can't parse 'in': ignored
Warning: can't parse 'out': ignored
Warning: can't parse 'vdd#branch': ignored

Note: No compatibility mode selected!


Circuit: level 3 - cmos inverter dc point

Doing analysis at TEMP = 27.000000 and TNOM = 27.000000

Using SPARSE 1.3 as Direct Linear Solver

No. of Data Rows : 1
	Node                                  Voltage
	----                                  -------
	----	-------
	out                              2.500000e+00
	in                               2.500000e+00
	vdd                              5.000000e+00

	Source	Current
	------	-------

	vdd#branch                       -1.36080e-03
	vin#branch                       0.000000e+00

 Mos1 models (Level 1 MOSfet model with Meyer capacitance model)
      model                  pmod                  nmod

       type                  pmos                  nmos
        vto                  -0.7                   0.7
         kp                 4e-05                 8e-05
      gamma                     0                     0
        phi                   0.6                   0.6
     lambda                  0.02                  0.02
         rd                     0                     0
         rs                     0                     0
        cbd                     0                     0
        cbs                     0                     0
         is                 1e-14                 1e-14
         pb                   0.8                   0.8
       cgso                     0                     0
       cgdo                     0                     0
       cgbo                     0                     0
        rsh                     0                     0
         cj                     0                     0
         mj                   0.5                   0.5
       cjsw                     0                     0
       mjsw                   0.5                   0.5
         js                     0                     0
        tox                     0                     0
         ld                     0                     0
         u0                     0                     0
         fc                   0.5                   0.5
       nsub                     0                     0
        tpg                     0                     0
        nss                     0                     0
       tnom                    27                    27
         kf                     0                     0
         af                     1                     1
       nlev                     2                     2
     gdsnoi                     1                     1

 Mos1: Level 1 MOSfet model with Meyer capacitance model
     device                    mp                    mn
      model                  pmod                  nmod
         id             0.0013608             0.0013608
         is            -0.0013608            -0.0013608
         ig                     0                     0
         ib             -2.51e-12             -2.51e-12
        vgs                   2.5                   2.5
        vds                   2.5                   2.5
        vbs                    -0                     0
        von                  -0.7                   0.7
      vdsat                  -1.8                   1.8
         rs                     0                     0
         rd                     0                     0
         gm              0.001512              0.001512
        gds             2.592e-05             2.592e-05
        gmb                     0                     0
        cbd                     0                     0
        cbs                     0                     0
        cgs                     0                     0
        cgd                     0                     0
        cgb                     0                     0
       cbd0                     0                     0
     cbdsw0                     0                     0
       cbs0                     0                     0
     cbssw0                     0                     0

 Vsource: Independent voltage source
     device                   vin                   vdd
         dc                   2.5                     5
      acmag                     0                     0
      pulse         -         -
        sin         -         -
        exp         -         -
        pwl         -         -
       sffm         -         -
         am         -         -
    trnoise         -         -
   trrandom         -         -
    portnum                     0                     0
         z0                     0                     0
        pwr                     0                     0
       freq                     0                     0
      phase                     0                     0
          i                     0            -0.0013608
          p                     0             -0.006804

                        level 3 - cmos inverter dc point
                        Operating Point  Mon Jun  8 21:59:19  2026
--------------------------------------------------------------------------------
Index   v(vdd)          v(in)           v(out)          vdd#branch      
--------------------------------------------------------------------------------
0	5.000000e+00	2.500000e+00	2.500000e+00	-1.36080e-03	


Total analysis time (seconds) = 0.00048

Total elapsed time (seconds) = 0.004 

Total DRAM available = 24576.000 MB.
DRAM currently available =  111.469 MB.
Maximum ngspice program size =    9.922 MB.
Current ngspice program size =    9.922 MB.

