Circuit: Level 5 - two-stage CMOS NAND with diode clamps

Operating Point
No. of Data Rows : 1

--------------------------------------------------------------------------------------------------------------------------------------------------------------------------------------------
Index   v(vdd)              v(a)                v(b)                v(stack)            v(x)                v(out)              vdd#branch          va#branch           vb#branch
--------------------------------------------------------------------------------------------------------------------------------------------------------------------------------------------
       0    5.0000000000e+00    3.0000000000e+00    2.2000000000e+00    3.8931972536e-01    6.7851484546e-01    6.9183381324e-01   -1.0674657573e-02    0.0000000000e+00    0.0000000000e+00
