Circuit: Level 6 - mixed CMOS BJT MOS diode multi-stage network

Operating Point
No. of Data Rows : 1

----------------------------------------------------------------------------------------------------------------------------------------------------------------------------------------------------------------------------------------------------------------------------------------------------------------------------------------
Index   v(vdd)              v(rail)             v(in)               v(ctrl)             v(pb)               v(x)                v(base)             v(emit)             v(c1)               v(source)           v(out)              vdd#branch          vin#branch          vctrl#branch        vbp#branch          lrail#branch
----------------------------------------------------------------------------------------------------------------------------------------------------------------------------------------------------------------------------------------------------------------------------------------------------------------------------------------
       0    6.0000000000e+00    6.0000000000e+00    2.2000000000e+00    2.3500000000e+00    5.2400000000e+00    5.5277537970e+00    1.9215081831e+00    1.1272894954e+00    1.1972169414e+00    2.6800857284e-01    2.5137204365e+00   -3.9796514724e-03    0.0000000000e+00    1.8367510173e-13    4.5529544670e-06    3.9796514724e-03
