Circuit: Level 5 - BJT differential pair with DC reactive limits

Operating Point
No. of Data Rows : 1

--------------------------------------------------------------------------------------------------------------------------------------------------------------------------------------------------------------------------------------------------------
Index   v(vcc)              v(rail)             v(inp)              v(inn)              v(emit)             v(c1)               v(c2)               v(ref)              vcc#branch          vinp#branch         vinn#branch         lrail#branch
--------------------------------------------------------------------------------------------------------------------------------------------------------------------------------------------------------------------------------------------------------
       0    9.0000000000e+00    9.0000000000e+00    7.8000000000e-01    7.4000000000e-01    1.1313539044e-02    5.1499892288e+00    8.1806083356e+00    6.4542977241e-01   -1.6897040655e-03   -5.4610045556e-06   -1.1622509184e-06    1.6897040655e-03
