Warning: can't parse 'a': ignored
Warning: can't parse 'b': ignored
Warning: can't parse 'x': ignored
Warning: can't parse 'y': ignored
Warning: can't parse 'v1#branch': ignored
Warning: can't parse 'v2#branch': ignored

Note: No compatibility mode selected!


Circuit: level 3 - linear bridge with two sources

Doing analysis at TEMP = 27.000000 and TNOM = 27.000000

Using SPARSE 1.3 as Direct Linear Solver

No. of Data Rows : 1
	Node                                  Voltage
	----                                  -------
	----	-------
	y                                1.783784e+00
	x                                7.090909e+00
	b                                3.000000e+00
	a                                1.200000e+01

	Source	Current
	------	-------

	v1#branch                        -4.90909e-03
	v2#branch                        5.528256e-04

 Resistor models (Simple linear resistor)
      model                     R

        rsh                     0
     narrow                     0
      short                     0
        tc1                     0
        tc2                     0
        tce                     0
       defw                 1e-05
          l                 1e-05
         kf                     0
         af                     0
          r                     0
     bv_max                 1e+99
         lf                     1
         wf                     1
         ef                     1

 Resistor: Simple linear resistor
     device                    r5                    r4                    r3
      model                     R                     R                     R
 resistance                  2200                  1500                  3000
         ac                  2200                  1500                  3000
      dtemp                     0                     0                     0
     bv_max                 1e+99                 1e+99                 1e+99
      noisy                     1                     1                     1
          i           0.000810811           0.000810811            0.00136364
          p            0.00144631           0.000986121            0.00557851

 Resistor: Simple linear resistor
     device                    r2                    r1
      model                     R                     R
 resistance                  2000                  1000
         ac                  2000                  1000
      dtemp                     0                     0
     bv_max                 1e+99                 1e+99
      noisy                     1                     1
          i            0.00354545            0.00490909
          p             0.0251405             0.0240992

 Vsource: Independent voltage source
     device                    v2                    v1
         dc                     3                    12
      acmag                     0                     0
      pulse         -         -
        sin         -         -
        exp         -         -
        pwl         -         -
       sffm         -         -
         am         -         -
    trnoise         -         -
   trrandom         -         -
    portnum                     0                     0
         z0                     0                     0
        pwr                     0                     0
       freq                     0                     0
      phase                     0                     0
          i           0.000552826           -0.00490909
          p            0.00165848            -0.0589091

                    level 3 - linear bridge with two sources
                    Operating Point  Mon Jun  8 21:59:19  2026
--------------------------------------------------------------------------------
Index   v(a)            v(b)            v(x)            v(y)            
--------------------------------------------------------------------------------
0	1.200000e+01	3.000000e+00	7.090909e+00	1.783784e+00	

                    level 3 - linear bridge with two sources
                    Operating Point  Mon Jun  8 21:59:19  2026
--------------------------------------------------------------------------------
Index   v1#branch       v2#branch       
--------------------------------------------------------------------------------
0	-4.90909e-03	5.528256e-04	


Total analysis time (seconds) = 0.000634

Total elapsed time (seconds) = 0.008 

Total DRAM available = 24576.000 MB.
DRAM currently available =  111.469 MB.
Maximum ngspice program size =    9.891 MB.
Current ngspice program size =    9.891 MB.

