Circuit: Level 6 - complementary BJT push-pull bridge

Operating Point
No. of Data Rows : 1

----------------------------------------------------------------------------------------------------------------------------------------------------------------------------------------------------------------------------------------------------------------------------
Index   v(vcc)              v(bp1)              v(bp2)              v(bn1)              v(bn2)              v(left)             v(right)            v(sense)            vcc#branch          vbp1#branch         vbp2#branch         vbn1#branch         vbn2#branch
----------------------------------------------------------------------------------------------------------------------------------------------------------------------------------------------------------------------------------------------------------------------------
       0    9.0000000000e+00    8.2400000000e+00    8.2800000000e+00    7.2000000000e-01    7.6000000000e-01    1.3236988902e+00    2.3443303140e-01    7.5843896443e-01   -7.4223155725e-04    5.8537949722e-06    1.4950188306e-06   -1.0382127248e-06   -3.9295249680e-06
